# generated using pymatgen
data_Ba3P4O13
_symmetry_space_group_name_H-M   'P 1'
_cell_length_a   7.60628504
_cell_length_b   8.67596467
_cell_length_c   10.62290596
_cell_angle_alpha   108.00114326
_cell_angle_beta   104.57568471
_cell_angle_gamma   102.51083200
_symmetry_Int_Tables_number   1
_chemical_formula_structural   Ba3P4O13
_chemical_formula_sum   'Ba6 P8 O26'
_cell_volume   611.35849291
_cell_formula_units_Z   2
loop_
 _symmetry_equiv_pos_site_id
 _symmetry_equiv_pos_as_xyz
  1  'x, y, z'
loop_
 _atom_type_symbol
 _atom_type_oxidation_number
  Ba2+  2.0
  P5+  5.0
  O2-  -2.0
loop_
 _atom_site_type_symbol
 _atom_site_label
 _atom_site_symmetry_multiplicity
 _atom_site_fract_x
 _atom_site_fract_y
 _atom_site_fract_z
 _atom_site_occupancy
  Ba2+  Ba0  1  0.14841512  0.22886700  0.22851755  1
  Ba2+  Ba1  1  0.85158488  0.77113300  0.77148245  1
  Ba2+  Ba2  1  0.63296062  0.22192794  0.72854476  1
  Ba2+  Ba3  1  0.36703938  0.77807206  0.27145524  1
  Ba2+  Ba4  1  0.00000000  0.00000000  0.50000000  1
  Ba2+  Ba5  1  0.50000000  0.00000000  0.00000000  1
  P5+  P6  1  0.15310828  0.52126058  0.86546381  1
  P5+  P7  1  0.84689172  0.47873942  0.13453619  1
  P5+  P8  1  0.33695022  0.46102634  0.63400102  1
  P5+  P9  1  0.66304978  0.53897366  0.36599898  1
  P5+  P10  1  0.32760511  0.79721948  0.63677148  1
  P5+  P11  1  0.67239489  0.20278052  0.36322852  1
  P5+  P12  1  0.84095119  0.81667260  0.14470978  1
  P5+  P13  1  0.15904881  0.18332740  0.85529022  1
  O2-  O14  1  0.29774685  0.16635725  0.77640017  1
  O2-  O15  1  0.70225315  0.83364275  0.22359983  1
  O2-  O16  1  0.95031982  0.10639793  0.75719295  1
  O2-  O17  1  0.04968018  0.89360207  0.24280705  1
  O2-  O18  1  0.18977551  0.11852681  0.97340784  1
  O2-  O19  1  0.81022449  0.88147319  0.02659216  1
  O2-  O20  1  0.19956200  0.38786312  0.93109538  1
  O2-  O21  1  0.80043800  0.61213688  0.06890462  1
  O2-  O22  1  0.70448544  0.14241303  0.48389657  1
  O2-  O23  1  0.29551456  0.85758697  0.51610343  1
  O2-  O24  1  0.82013134  0.19870181  0.29206430  1
  O2-  O25  1  0.17986866  0.80129819  0.70793570  1
  O2-  O26  1  0.46686456  0.11492110  0.26007664  1
  O2-  O27  1  0.53313544  0.88507890  0.73992336  1
  O2-  O28  1  0.69351764  0.40651576  0.43772426  1
  O2-  O29  1  0.30648236  0.59348424  0.56227574  1
  O2-  O30  1  0.28401589  0.69314617  0.96977098  1
  O2-  O31  1  0.71598411  0.30685383  0.03022902  1
  O2-  O32  1  0.73434082  0.71176588  0.48289862  1
  O2-  O33  1  0.26565918  0.28823412  0.51710138  1
  O2-  O34  1  0.46163894  0.48431363  0.26929025  1
  O2-  O35  1  0.53836106  0.51568637  0.73070975  1
  O2-  O36  1  0.80653240  0.53681378  0.27994600  1
  O2-  O37  1  0.19346760  0.46318622  0.72005400  1
  O2-  O38  1  0.94391059  0.49889771  0.82186479  1
  O2-  O39  1  0.05608941  0.50110229  0.17813521  1
