# generated using pymatgen
data_LiCr(MoO4)2
_symmetry_space_group_name_H-M   'P 1'
_cell_length_a   6.82556328
_cell_length_b   7.23754450
_cell_length_c   7.52799038
_cell_angle_alpha   91.44995496
_cell_angle_beta   110.33353827
_cell_angle_gamma   104.89431837
_symmetry_Int_Tables_number   1
_chemical_formula_structural   LiCr(MoO4)2
_chemical_formula_sum   'Li2 Cr2 Mo4 O16'
_cell_volume   334.28854282
_cell_formula_units_Z   2
loop_
 _symmetry_equiv_pos_site_id
 _symmetry_equiv_pos_as_xyz
  1  'x, y, z'
loop_
 _atom_type_symbol
 _atom_type_oxidation_number
  Li+  1.0
  Cr3+  3.0
  Mo6+  6.0
  O2-  -2.0
loop_
 _atom_site_type_symbol
 _atom_site_label
 _atom_site_symmetry_multiplicity
 _atom_site_fract_x
 _atom_site_fract_y
 _atom_site_fract_z
 _atom_site_occupancy
  Li+  Li0  1  0.73005700  0.04925800  0.75457700  1
  Li+  Li1  1  0.26994300  0.95074200  0.24542300  1
  Cr3+  Cr2  1  0.08876100  0.39953400  0.67784600  1
  Cr3+  Cr3  1  0.91123900  0.60046600  0.32215400  1
  Mo6+  Mo4  1  0.67486600  0.52951100  0.78832200  1
  Mo6+  Mo5  1  0.32513400  0.47048900  0.21167800  1
  Mo6+  Mo6  1  0.16806400  0.92442000  0.71667300  1
  Mo6+  Mo7  1  0.83193600  0.07558000  0.28332700  1
  O2-  O8  1  0.07136500  0.66089600  0.60780200  1
  O2-  O9  1  0.92863500  0.33910400  0.39219800  1
  O2-  O10  1  0.24681900  0.92063000  0.96190600  1
  O2-  O11  1  0.75318100  0.07937000  0.03809400  1
  O2-  O12  1  0.38334100  0.44513600  0.65973400  1
  O2-  O13  1  0.61665900  0.55486400  0.34026600  1
  O2-  O14  1  0.74495500  0.53322200  0.04147300  1
  O2-  O15  1  0.25504500  0.46677800  0.95852700  1
  O2-  O16  1  0.01704900  0.11215900  0.66207600  1
  O2-  O17  1  0.98295100  0.88784100  0.33792400  1
  O2-  O18  1  0.80672000  0.36615100  0.71861200  1
  O2-  O19  1  0.19328000  0.63384900  0.28138800  1
  O2-  O20  1  0.77570200  0.76843800  0.74741600  1
  O2-  O21  1  0.22429800  0.23156200  0.25258400  1
  O2-  O22  1  0.40915600  0.01659000  0.67590800  1
  O2-  O23  1  0.59084400  0.98341000  0.32409200  1
