# generated using pymatgen
data_NaNd(MoO4)2
_symmetry_space_group_name_H-M   'P 1'
_cell_length_a   5.34981600
_cell_length_b   5.34981600
_cell_length_c   11.65902800
_cell_angle_alpha   90.00000000
_cell_angle_beta   90.00000000
_cell_angle_gamma   90.00000000
_symmetry_Int_Tables_number   1
_chemical_formula_structural   NaNd(MoO4)2
_chemical_formula_sum   'Na2 Nd2 Mo4 O16'
_cell_volume   333.68757503
_cell_formula_units_Z   2
loop_
 _symmetry_equiv_pos_site_id
 _symmetry_equiv_pos_as_xyz
  1  'x, y, z'
loop_
 _atom_type_symbol
 _atom_type_oxidation_number
  Na+  1.0
  Nd3+  3.0
  Mo6+  6.0
  O2-  -2.0
loop_
 _atom_site_type_symbol
 _atom_site_label
 _atom_site_symmetry_multiplicity
 _atom_site_fract_x
 _atom_site_fract_y
 _atom_site_fract_z
 _atom_site_occupancy
  Na+  Na0  1  0.00000000  0.50000000  0.25000000  1
  Na+  Na1  1  0.50000000  0.00000000  0.75000000  1
  Nd3+  Nd2  1  0.50000000  0.50000000  0.00000000  1
  Nd3+  Nd3  1  0.00000000  0.00000000  0.50000000  1
  Mo6+  Mo4  1  0.50000000  0.00000000  0.25000000  1
  Mo6+  Mo5  1  0.00000000  0.00000000  0.00000000  1
  Mo6+  Mo6  1  0.00000000  0.50000000  0.75000000  1
  Mo6+  Mo7  1  0.50000000  0.50000000  0.50000000  1
  O2-  O8  1  0.25881050  0.85872750  0.33719650  1
  O2-  O9  1  0.74118950  0.14127250  0.33719650  1
  O2-  O10  1  0.84796400  0.24414300  0.08160200  1
  O2-  O11  1  0.15203600  0.75585700  0.08160200  1
  O2-  O12  1  0.74414300  0.65203600  0.41839800  1
  O2-  O13  1  0.25585700  0.34796400  0.41839800  1
  O2-  O14  1  0.64127250  0.75881050  0.16280350  1
  O2-  O15  1  0.35872750  0.24118950  0.16280350  1
  O2-  O16  1  0.75881050  0.35872750  0.83719650  1
  O2-  O17  1  0.24118950  0.64127250  0.83719650  1
  O2-  O18  1  0.34796400  0.74414300  0.58160200  1
  O2-  O19  1  0.65203600  0.25585700  0.58160200  1
  O2-  O20  1  0.24414300  0.15203600  0.91839800  1
  O2-  O21  1  0.75585700  0.84796400  0.91839800  1
  O2-  O22  1  0.14127250  0.25881050  0.66280350  1
  O2-  O23  1  0.85872750  0.74118950  0.66280350  1
